MATDSS_ver0.95/DSS_Files/123Bus_SingleArea/ieee123_Power_elem_kVA.txt

CIRCUIT ELEMENT POWER FLOW

(Power Flow into element from indicated Bus)

Power Delivery Elements

  Bus    Phase     kW     +j   kvar         kVA         PF

ELEMENT = "Vsource.SOURCE"
150          1     -1459.5 +j   -582.7     1571.5       0.9287
150          2      -960.5 +j   -341.9     1019.6       0.9421
150          3     -1188.3 +j   -399.3     1253.6       0.9479
   TERMINAL TOTAL  -3608.4 +j  -1323.9     3843.6       0.9388
150          0         0.0 +j      0.0        0.0       1.0000
150          0         0.0 +j      0.0        0.0       1.0000
150          0         0.0 +j      0.0        0.0       1.0000
   TERMINAL TOTAL      0.0 +j      0.0        0.0       1.0000

ELEMENT = "Transformer.REG1A"
150          1      1459.5 +j    582.7     1571.5       0.9287
150          2       960.5 +j    341.9     1019.6       0.9421
150          3      1188.3 +j    399.3     1253.6       0.9479
150          0         0.0 +j      0.0        0.0       1.0000
   TERMINAL TOTAL   3608.4 +j   1323.9     3843.6       0.9388
150R         1     -1459.5 +j   -582.7     1571.5       0.9287
150R         2      -960.5 +j   -341.9     1019.6       0.9421
150R         3     -1188.3 +j   -399.3     1253.6       0.9479
150R         0         0.0 +j      0.0        0.0       1.0000
   TERMINAL TOTAL  -3608.4 +j  -1323.8     3843.5       0.9388

ELEMENT = "Line.L115"
149          1      1459.5 +j    582.7     1571.5       0.9287
149          2       960.5 +j    341.9     1019.6       0.9421
149          3      1188.3 +j    399.3     1253.6       0.9479
   TERMINAL TOTAL   3608.4 +j   1323.8     3843.5       0.9388
1            1     -1448.2 +j   -559.4     1552.5       0.9328
1            2      -960.1 +j   -335.8     1017.2       0.9439
1            3     -1180.7 +j   -388.1     1242.9       0.9500
   TERMINAL TOTAL  -3589.1 +j  -1283.3     3811.6       0.9416

ELEMENT = "Line.L1"
1            2        20.0 +j     10.0       22.4       0.8944
   TERMINAL TOTAL     20.0 +j     10.0       22.4       0.8944
2            2       -20.0 +j    -10.0       22.4       0.8944
   TERMINAL TOTAL    -20.0 +j    -10.0       22.4       0.8944

ELEMENT = "Line.L2"
1            3       102.9 +j     51.5      115.0       0.8940
   TERMINAL TOTAL    102.9 +j     51.5      115.0       0.8940
3            3      -102.7 +j    -51.4      114.9       0.8943
   TERMINAL TOTAL   -102.7 +j    -51.4      114.9       0.8943

ELEMENT = "Line.L3"
1            1      1408.2 +j    539.4     1508.0       0.9338
1            2       940.1 +j    325.8      995.0       0.9449
1            3      1077.9 +j    336.5     1129.2       0.9546
   TERMINAL TOTAL   3426.2 +j   1201.8     3630.9       0.9436
7            1     -1399.7 +j   -523.0     1494.3       0.9367
7            2      -940.0 +j   -321.2      993.3       0.9463
7            3     -1073.3 +j   -330.0     1122.9       0.9559
   TERMINAL TOTAL  -3413.0 +j  -1174.1     3609.4       0.9456

ELEMENT = "Line.L4"
3            3        40.0 +j     20.0       44.7       0.8944
   TERMINAL TOTAL     40.0 +j     20.0       44.7       0.8944
4            3       -40.0 +j    -20.0       44.7       0.8944
   TERMINAL TOTAL    -40.0 +j    -20.0       44.7       0.8944

ELEMENT = "Line.L5"
3            3        62.7 +j     31.4       70.1       0.8942
   TERMINAL TOTAL     62.7 +j     31.4       70.1       0.8942
5            3       -62.6 +j    -31.3       70.0       0.8944
   TERMINAL TOTAL    -62.6 +j    -31.3       70.0       0.8944

ELEMENT = "Line.L6"
5            3        42.1 +j     21.1       47.1       0.8943
   TERMINAL TOTAL     42.1 +j     21.1       47.1       0.8943
6            3       -42.1 +j    -21.0       47.1       0.8944
   TERMINAL TOTAL    -42.1 +j    -21.0       47.1       0.8944

ELEMENT = "Line.L7"
7            1      1379.7 +j    513.0     1472.0       0.9373
7            2       940.0 +j    321.2      993.3       0.9463
7            3      1073.3 +j    330.0     1122.9       0.9559
   TERMINAL TOTAL   3393.0 +j   1164.1     3587.2       0.9459
8            1     -1374.3 +j   -502.5     1463.2       0.9392
8            2      -939.8 +j   -318.0      992.2       0.9472
8            3     -1070.3 +j   -325.5     1118.8       0.9567
   TERMINAL TOTAL  -3384.4 +j  -1146.0     3573.2       0.9472

ELEMENT = "Line.L8"
8            2        20.0 +j     10.0       22.4       0.8944
   TERMINAL TOTAL     20.0 +j     10.0       22.4       0.8944
12           2       -20.0 +j    -10.0       22.4       0.8944
   TERMINAL TOTAL    -20.0 +j    -10.0       22.4       0.8944

ELEMENT = "Line.L9"
8            1       100.9 +j     50.6      112.9       0.8940
   TERMINAL TOTAL    100.9 +j     50.6      112.9       0.8940
9            1      -100.8 +j    -50.4      112.7       0.8942
   TERMINAL TOTAL   -100.8 +j    -50.4      112.7       0.8942

ELEMENT = "Line.L10"
8            1      1273.4 +j    451.9     1351.2       0.9424
8            2       919.8 +j    308.0      970.0       0.9482
8            3      1070.3 +j    325.5     1118.8       0.9567
   TERMINAL TOTAL   3263.5 +j   1085.5     3439.3       0.9489
13           1     -1266.6 +j   -438.7     1340.4       0.9449
13           2      -919.1 +j   -303.6      968.0       0.9495
13           3     -1066.0 +j   -318.4     1112.5       0.9582
   TERMINAL TOTAL  -3251.7 +j  -1060.8     3420.4       0.9507

ELEMENT = "Line.L11"
9R           1        60.8 +j     30.4       68.0       0.8941
   TERMINAL TOTAL     60.8 +j     30.4       68.0       0.8941
14           1       -60.7 +j    -30.4       67.9       0.8944
   TERMINAL TOTAL    -60.7 +j    -30.4       67.9       0.8944

ELEMENT = "Line.L12"
13           3       101.2 +j     50.7      113.2       0.8942
   TERMINAL TOTAL    101.2 +j     50.7      113.2       0.8942
34           3      -101.1 +j    -50.6      113.1       0.8943
   TERMINAL TOTAL   -101.1 +j    -50.6      113.1       0.8943

ELEMENT = "Line.L13"
13           1       484.3 +j    263.5      551.4       0.8784
13           2       318.4 +j    215.9      384.7       0.8276
13           3       323.2 +j    188.6      374.2       0.8637
   TERMINAL TOTAL   1125.9 +j    668.0     1309.2       0.8600
18           1      -481.9 +j   -257.6      546.4       0.8819
18           2      -318.0 +j   -213.7      383.1       0.8301
18           3      -321.1 +j   -186.9      371.5       0.8643
   TERMINAL TOTAL  -1121.0 +j   -658.1     1299.9       0.8624

ELEMENT = "Line.L14"
14           1        40.5 +j     20.3       45.3       0.8943
   TERMINAL TOTAL     40.5 +j     20.3       45.3       0.8943
11           1       -40.5 +j    -20.3       45.3       0.8944
   TERMINAL TOTAL    -40.5 +j    -20.3       45.3       0.8944

ELEMENT = "Line.L15"
14           1        20.1 +j     10.1       22.5       0.8944
   TERMINAL TOTAL     20.1 +j     10.1       22.5       0.8944
10           1       -20.1 +j    -10.1       22.5       0.8944
   TERMINAL TOTAL    -20.1 +j    -10.1       22.5       0.8944

ELEMENT = "Line.L16"
15           3        40.0 +j     20.0       44.8       0.8943
   TERMINAL TOTAL     40.0 +j     20.0       44.8       0.8943
16           3       -40.0 +j    -20.0       44.7       0.8944
   TERMINAL TOTAL    -40.0 +j    -20.0       44.7       0.8944

ELEMENT = "Line.L17"
15           3        20.0 +j     10.0       22.4       0.8944
   TERMINAL TOTAL     20.0 +j     10.0       22.4       0.8944
17           3       -20.0 +j    -10.0       22.4       0.8944
   TERMINAL TOTAL    -20.0 +j    -10.0       22.4       0.8944

ELEMENT = "Line.L18"
18           1        79.8 +j     39.9       89.2       0.8942
   TERMINAL TOTAL     79.8 +j     39.9       89.2       0.8942
19           1       -79.7 +j    -39.9       89.1       0.8944
   TERMINAL TOTAL    -79.7 +j    -39.9       89.1       0.8944

ELEMENT = "Line.L19"
18           1       119.1 +j     60.1      133.4       0.8928
18           2        42.1 +j     21.1       47.1       0.8944
18           3       120.4 +j     60.4      134.7       0.8940
   TERMINAL TOTAL    281.6 +j    141.5      315.2       0.8936
21           1      -119.1 +j    -59.9      133.3       0.8933
21           2       -42.1 +j    -21.1       47.1       0.8943
21           3      -120.3 +j    -60.2      134.6       0.8942
   TERMINAL TOTAL   -281.5 +j   -141.2      315.0       0.8938

ELEMENT = "Line.L20"
19           1        39.7 +j     19.8       44.4       0.8943
   TERMINAL TOTAL     39.7 +j     19.8       44.4       0.8943
20           1       -39.6 +j    -19.8       44.3       0.8944
   TERMINAL TOTAL    -39.6 +j    -19.8       44.3       0.8944

ELEMENT = "Line.L21"
21           2        42.1 +j     21.1       47.1       0.8942
   TERMINAL TOTAL     42.1 +j     21.1       47.1       0.8942
22           2       -42.0 +j    -21.0       47.0       0.8944
   TERMINAL TOTAL    -42.0 +j    -21.0       47.0       0.8944

ELEMENT = "Line.L22"
21           1       119.1 +j     59.9      133.3       0.8933
21           2         0.0 +j     -0.0        0.0      -0.0623
21           3       120.3 +j     60.2      134.6       0.8942
   TERMINAL TOTAL    239.4 +j    120.2      267.9       0.8937
23           1      -119.1 +j    -59.8      133.3       0.8937
23           2        -0.0 +j      0.0        0.0      -0.0626
23           3      -120.2 +j    -60.1      134.4       0.8943
   TERMINAL TOTAL   -239.3 +j   -119.9      267.7       0.8940

ELEMENT = "Line.L23"
23           3        40.0 +j     20.0       44.8       0.8942
   TERMINAL TOTAL     40.0 +j     20.0       44.8       0.8942
24           3       -40.0 +j    -20.0       44.7       0.8944
   TERMINAL TOTAL    -40.0 +j    -20.0       44.7       0.8944

ELEMENT = "Line.L24"
23           1       119.1 +j     59.8      133.3       0.8937
23           2         0.0 +j     -0.0        0.0      -0.0626
23           3        80.2 +j     40.1       89.6       0.8943
   TERMINAL TOTAL    199.3 +j     99.9      222.9       0.8939
25           1      -119.1 +j    -59.7      133.2       0.8941
25           2        -0.0 +j      0.0        0.0      -0.0627
25           3       -80.1 +j    -40.1       89.5       0.8943
   TERMINAL TOTAL   -199.2 +j    -99.7      222.7       0.8942

ELEMENT = "Line.L25"
25R          1        40.1 +j     20.1       44.9       0.8939
25R          3        40.0 +j     20.0       44.8       0.8943
   TERMINAL TOTAL     80.2 +j     40.2       89.7       0.8941
26           1       -40.1 +j    -20.1       44.9       0.8941
26           3       -40.0 +j    -20.0       44.8       0.8943
   TERMINAL TOTAL    -80.2 +j    -40.1       89.6       0.8942

ELEMENT = "Line.L26"
25           1        79.0 +j     39.5       88.3       0.8942
25           2         0.0 +j     -0.0        0.0      -0.0627
25           3        40.0 +j     20.0       44.8       0.8943
   TERMINAL TOTAL    119.0 +j     59.6      133.1       0.8942
28           1       -78.9 +j    -39.5       88.3       0.8944
28           2        -0.0 +j      0.0        0.0      -0.0627
28           3       -40.0 +j    -20.0       44.8       0.8943
   TERMINAL TOTAL   -119.0 +j    -59.5      133.0       0.8944

ELEMENT = "Line.L27"
26           1        40.1 +j     20.1       44.9       0.8941
26           3        -0.0 +j     -0.0        0.0       0.1559
   TERMINAL TOTAL     40.1 +j     20.1       44.9       0.8941
27           1       -40.1 +j    -20.1       44.9       0.8942
27           3         0.0 +j     -0.0        0.0      -0.4819
   TERMINAL TOTAL    -40.1 +j    -20.1       44.9       0.8942

ELEMENT = "Line.L28"
26           3        40.0 +j     20.0       44.8       0.8943
   TERMINAL TOTAL     40.0 +j     20.0       44.8       0.8943
31           3       -40.0 +j    -20.0       44.7       0.8944
   TERMINAL TOTAL    -40.0 +j    -20.0       44.7       0.8944

ELEMENT = "Line.L29"
27           1        40.1 +j     20.1       44.9       0.8942
   TERMINAL TOTAL     40.1 +j     20.1       44.9       0.8942
33           1       -40.1 +j    -20.0       44.8       0.8944
   TERMINAL TOTAL    -40.1 +j    -20.0       44.8       0.8944

ELEMENT = "Line.L30"
28           1        39.3 +j     19.7       43.9       0.8943
28           2         0.0 +j     -0.0        0.0      -0.0627
28           3        40.0 +j     20.0       44.8       0.8943
   TERMINAL TOTAL     79.3 +j     39.7       88.7       0.8943
29           1       -39.3 +j    -19.6       43.9       0.8945
29           2        -0.0 +j      0.0        0.0      -0.0628
29           3       -40.0 +j    -20.0       44.7       0.8943
   TERMINAL TOTAL    -79.3 +j    -39.7       88.7       0.8944

ELEMENT = "Line.L31"
29           1         0.0 +j     -0.0        0.0      -0.0695
29           2         0.0 +j     -0.0        0.0      -0.0628
29           3        40.0 +j     20.0       44.7       0.8943
   TERMINAL TOTAL     40.0 +j     20.0       44.7       0.8944
30           1        -0.0 +j      0.0        0.0      -0.0694
30           2        -0.0 +j      0.0        0.0      -0.0630
30           3       -40.0 +j    -20.0       44.7       0.8944
   TERMINAL TOTAL    -40.0 +j    -20.0       44.7       0.8945

ELEMENT = "Line.L32"
30           1         0.0 +j     -0.0        0.0      -0.0694
30           2         0.0 +j     -0.0        0.0      -0.0630
30           3        -0.0 +j     -0.0        0.0       0.1320
   TERMINAL TOTAL      0.0 +j     -0.0        0.0      -0.0000
250          1         0.0 +j     -0.0        0.0      -0.4077
250          2        -0.0 +j      0.0        0.0      -0.0439
250          3         0.0 +j      0.0        0.0       0.8765
   TERMINAL TOTAL      0.0 +j      0.0        0.0       0.7627

ELEMENT = "Line.L33"
31           3        20.0 +j     10.0       22.4       0.8944
   TERMINAL TOTAL     20.0 +j     10.0       22.4       0.8944
32           3       -20.0 +j    -10.0       22.4       0.8944
   TERMINAL TOTAL    -20.0 +j    -10.0       22.4       0.8944

ELEMENT = "Line.L34"
34           3        60.1 +j     30.1       67.2       0.8943
   TERMINAL TOTAL     60.1 +j     30.1       67.2       0.8943
15           3       -60.0 +j    -30.0       67.1       0.8943
   TERMINAL TOTAL    -60.0 +j    -30.0       67.1       0.8943

ELEMENT = "Line.L35"
35           1        39.2 +j     19.6       43.8       0.8942
35           2        40.5 +j     20.3       45.3       0.8940
   TERMINAL TOTAL     79.6 +j     39.9       89.1       0.8941
36           1       -39.1 +j    -19.6       43.8       0.8943
36           2       -40.5 +j    -20.3       45.3       0.8943
   TERMINAL TOTAL    -79.6 +j    -39.8       89.0       0.8943

ELEMENT = "Line.L36"
35           1       217.8 +j    139.1      258.4       0.8428
35           2       220.5 +j    149.4      266.3       0.8278
35           3       200.6 +j    126.2      236.9       0.8465
   TERMINAL TOTAL    638.9 +j    414.7      761.7       0.8388
40           1      -217.6 +j   -138.7      258.1       0.8432
40           2      -220.4 +j   -149.1      266.1       0.8283
40           3      -200.5 +j   -125.9      236.7       0.8469
   TERMINAL TOTAL   -638.4 +j   -413.7      760.7       0.8392

ELEMENT = "Line.L37"
36           1        39.1 +j     19.6       43.8       0.8943
   TERMINAL TOTAL     39.1 +j     19.6       43.8       0.8943
37           1       -39.1 +j    -19.6       43.7       0.8944
   TERMINAL TOTAL    -39.1 +j    -19.6       43.7       0.8944

ELEMENT = "Line.L38"
36           2        40.5 +j     20.3       45.3       0.8943
   TERMINAL TOTAL     40.5 +j     20.3       45.3       0.8943
38           2       -40.5 +j    -20.2       45.2       0.8944
   TERMINAL TOTAL    -40.5 +j    -20.2       45.2       0.8944

ELEMENT = "Line.L39"
38           2        20.0 +j     10.0       22.4       0.8944
   TERMINAL TOTAL     20.0 +j     10.0       22.4       0.8944
39           2       -20.0 +j    -10.0       22.4       0.8944
   TERMINAL TOTAL    -20.0 +j    -10.0       22.4       0.8944

ELEMENT = "Line.L40"
40           3        20.0 +j     10.0       22.4       0.8944
   TERMINAL TOTAL     20.0 +j     10.0       22.4       0.8944
41           3       -20.0 +j    -10.0       22.4       0.8944
   TERMINAL TOTAL    -20.0 +j    -10.0       22.4       0.8944

ELEMENT = "Line.L41"
40           1       217.6 +j    138.7      258.1       0.8432
40           2       220.4 +j    149.1      266.1       0.8283
40           3       180.5 +j    115.9      214.4       0.8415
   TERMINAL TOTAL    618.4 +j    403.7      738.5       0.8374
42           1      -217.3 +j   -138.4      257.6       0.8435
42           2      -220.3 +j   -148.7      265.8       0.8288
42           3      -180.4 +j   -115.6      214.3       0.8418
   TERMINAL TOTAL   -617.9 +j   -402.7      737.6       0.8378

ELEMENT = "Line.L42"
42           2        41.7 +j     20.9       46.6       0.8942
   TERMINAL TOTAL     41.7 +j     20.9       46.6       0.8942
43           2       -41.6 +j    -20.8       46.6       0.8944
   TERMINAL TOTAL    -41.6 +j    -20.8       46.6       0.8944

ELEMENT = "Line.L43"
42           1       197.3 +j    128.4      235.4       0.8382
42           2       178.6 +j    127.8      219.6       0.8131
42           3       180.4 +j    115.6      214.3       0.8418
   TERMINAL TOTAL    556.2 +j    371.9      669.1       0.8313
44           1      -197.2 +j   -128.1      235.1       0.8385
44           2      -178.5 +j   -127.7      219.5       0.8134
44           3      -180.3 +j   -115.5      214.1       0.8421
   TERMINAL TOTAL   -555.9 +j   -371.3      668.5       0.8316

ELEMENT = "Line.L44"
44           1        39.7 +j     19.9       44.4       0.8943
   TERMINAL TOTAL     39.7 +j     19.9       44.4       0.8943
45           1       -39.7 +j    -19.9       44.4       0.8944
   TERMINAL TOTAL    -39.7 +j    -19.9       44.4       0.8944

ELEMENT = "Line.L45"
44           1       157.4 +j    108.3      191.1       0.8240
44           2       178.5 +j    127.7      219.5       0.8134
44           3       180.3 +j    115.5      214.1       0.8421
   TERMINAL TOTAL    516.2 +j    351.4      624.5       0.8267
47           1      -157.3 +j   -108.1      190.9       0.8242
47           2      -178.4 +j   -127.4      219.2       0.8137
47           3      -180.2 +j   -115.2      213.9       0.8425
   TERMINAL TOTAL   -515.9 +j   -350.7      623.8       0.8270

ELEMENT = "Line.L46"
45           1        20.0 +j     10.0       22.4       0.8944
   TERMINAL TOTAL     20.0 +j     10.0       22.4       0.8944
46           1       -20.0 +j    -10.0       22.4       0.8944
   TERMINAL TOTAL    -20.0 +j    -10.0       22.4       0.8944

ELEMENT = "Line.L47"
47           1        67.8 +j     48.5       83.4       0.8137
47           2        72.7 +j     51.9       89.3       0.8137
47           3        70.1 +j     50.1       86.2       0.8136
   TERMINAL TOTAL    210.6 +j    150.5      258.9       0.8137
48           1       -67.8 +j    -48.4       83.3       0.8137
48           2       -72.7 +j    -51.9       89.3       0.8137
48           3       -70.1 +j    -50.1       86.2       0.8137
   TERMINAL TOTAL   -210.6 +j   -150.4      258.8       0.8137

ELEMENT = "Line.L48"
47           1        55.0 +j     35.0       65.2       0.8436
47           2        70.0 +j     50.0       86.1       0.8137
47           3        75.0 +j     40.1       85.0       0.8822
   TERMINAL TOTAL    200.1 +j    125.1      236.0       0.8479
49           1       -55.0 +j    -35.0       65.2       0.8437
49           2       -70.0 +j    -50.0       86.0       0.8138
49           3       -75.0 +j    -40.0       85.0       0.8823
   TERMINAL TOTAL   -200.0 +j   -125.0      235.9       0.8480

ELEMENT = "Line.L49"
49           1        20.0 +j     10.0       22.4       0.8944
49           2        -0.0 +j     -0.0        0.0       0.3727
49           3        40.0 +j     20.0       44.7       0.8944
   TERMINAL TOTAL     60.0 +j     30.0       67.1       0.8944
50           1       -20.0 +j    -10.0       22.4       0.8944
50           2         0.0 +j      0.0        0.0       0.3726
50           3       -40.0 +j    -20.0       44.7       0.8945
   TERMINAL TOTAL    -60.0 +j    -30.0       67.1       0.8945

ELEMENT = "Line.L50"
50           1        20.0 +j     10.0       22.4       0.8944
50           2        -0.0 +j     -0.0        0.0       0.3726
50           3         0.0 +j     -0.0        0.0      -0.1460
   TERMINAL TOTAL     20.0 +j     10.0       22.4       0.8946
51           1       -20.0 +j    -10.0       22.4       0.8945
51           2         0.0 +j      0.0        0.0       0.3726
51           3        -0.0 +j      0.0        0.0      -0.1461
   TERMINAL TOTAL    -20.0 +j    -10.0       22.4       0.8946

ELEMENT = "Line.L51"
51           1         0.0 +j     -0.0        0.0      -0.3056
51           2        -0.0 +j     -0.0        0.0       0.3726
51           3         0.0 +j     -0.0        0.0      -0.1461
   TERMINAL TOTAL     -0.0 +j     -0.0        0.0       0.0000
151          1         0.0 +j      0.0        0.0       1.0000
151          2         0.0 +j     -0.0        0.0      -1.0000
151          3         0.0 +j     -0.0        0.0      -1.0000
   TERMINAL TOTAL      0.0 +j     -0.0        0.0      -1.0000

ELEMENT = "Line.L52"
52           1       738.7 +j    149.0      753.6       0.9803
52           2       600.4 +j     85.1      606.4       0.9901
52           3       639.8 +j     76.1      644.3       0.9930
   TERMINAL TOTAL   1978.9 +j    310.2     2003.1       0.9879
53           1      -737.2 +j   -146.3      751.5       0.9809
53           2      -600.1 +j    -83.7      605.9       0.9904
53           3      -639.0 +j    -74.6      643.3       0.9933
   TERMINAL TOTAL  -1976.3 +j   -304.6     1999.6       0.9883

ELEMENT = "Line.L53"
53           1       697.2 +j    126.3      708.5       0.9840
53           2       600.1 +j     83.7      605.9       0.9904
53           3       639.0 +j     74.6      643.3       0.9933
   TERMINAL TOTAL   1936.3 +j    284.6     1957.1       0.9894
54           1      -696.3 +j   -124.9      707.4       0.9843
54           2      -599.9 +j    -82.9      605.6       0.9906
54           3      -638.5 +j    -73.5      642.7       0.9934
   TERMINAL TOTAL  -1934.7 +j   -281.3     1955.0       0.9896

ELEMENT = "Line.L54"
54           1        19.7 +j      9.8       22.0       0.8945
54           2        20.0 +j     10.0       22.4       0.8944
54           3         0.0 +j     -0.0        0.0      -0.0688
   TERMINAL TOTAL     39.7 +j     19.8       44.4       0.8945
55           1       -19.7 +j     -9.8       22.0       0.8945
55           2       -20.0 +j    -10.0       22.4       0.8944
55           3        -0.0 +j      0.0        0.0      -0.0689
   TERMINAL TOTAL    -39.7 +j    -19.8       44.4       0.8945

ELEMENT = "Line.L55"
54           1       676.6 +j    115.1      686.3       0.9858
54           2       579.9 +j     72.9      584.5       0.9922
54           3       638.5 +j     73.5      642.7       0.9934
   TERMINAL TOTAL   1895.0 +j    261.5     1913.0       0.9906
57           1      -675.1 +j   -111.1      684.1       0.9867
57           2      -578.6 +j    -70.7      582.9       0.9926
57           3      -637.1 +j    -71.0      641.0       0.9939
   TERMINAL TOTAL  -1890.7 +j   -252.8     1907.5       0.9912

ELEMENT = "Line.L56"
55           1        -0.0 +j     -0.0        0.0       0.1497
55           2        20.0 +j     10.0       22.4       0.8944
55           3         0.0 +j     -0.0        0.0      -0.0689
   TERMINAL TOTAL     20.0 +j     10.0       22.4       0.8945
56           1         0.0 +j     -0.0        0.0      -0.1738
56           2       -20.0 +j    -10.0       22.4       0.8944
56           3        -0.0 +j     -0.0        0.0       0.9685
   TERMINAL TOTAL    -20.0 +j    -10.0       22.4       0.8944

ELEMENT = "Line.L57"
57           2        40.5 +j     20.3       45.3       0.8943
   TERMINAL TOTAL     40.5 +j     20.3       45.3       0.8943
58           2       -40.5 +j    -20.2       45.3       0.8944
   TERMINAL TOTAL    -40.5 +j    -20.2       45.3       0.8944

ELEMENT = "Line.L58"
57           1       675.1 +j    111.1      684.1       0.9867
57           2       538.0 +j     50.4      540.4       0.9956
57           3       637.1 +j     71.0      641.0       0.9939
   TERMINAL TOTAL   1850.2 +j    232.5     1864.8       0.9922
60           1      -671.8 +j   -102.4      679.6       0.9886
60           2      -535.7 +j    -46.5      537.8       0.9963
60           3      -633.8 +j    -65.5      637.2       0.9947
   TERMINAL TOTAL  -1841.4 +j   -214.4     1853.8       0.9933

ELEMENT = "Line.L59"
58           2        20.0 +j     10.0       22.4       0.8944
   TERMINAL TOTAL     20.0 +j     10.0       22.4       0.8944
59           2       -20.0 +j    -10.0       22.4       0.8944
   TERMINAL TOTAL    -20.0 +j    -10.0       22.4       0.8944

ELEMENT = "Line.L60"
60           1        -0.0 +j     -0.0        0.0       0.0880
60           2         0.0 +j     -0.0        0.0      -0.1397
60           3        -0.0 +j     -0.0        0.0       0.0572
   TERMINAL TOTAL      0.0 +j     -0.0        0.0      -0.0002
61           1        -0.0 +j     -0.0        0.0       0.0306
61           2        -0.0 +j     -0.0        0.0       0.0340
61           3        -0.0 +j     -0.0        0.0       0.0256
   TERMINAL TOTAL     -0.0 +j     -0.0        0.0       0.0301

ELEMENT = "Line.L61"
60           1        84.4 +j     65.4      106.8       0.7904
60           2       112.2 +j     61.0      127.7       0.8786
60           3       174.7 +j     83.5      193.6       0.9022
   TERMINAL TOTAL    371.3 +j    209.9      426.5       0.8705
62           1       -84.4 +j    -65.4      106.8       0.7903
62           2      -112.1 +j    -61.0      127.6       0.8784
62           3      -174.3 +j    -83.3      193.2       0.9023
   TERMINAL TOTAL   -370.7 +j   -209.7      425.9       0.8704

ELEMENT = "Line.L62"
62           1        84.4 +j     65.4      106.8       0.7903
62           2       112.1 +j     61.0      127.6       0.8784
62           3       134.5 +j     63.4      148.7       0.9046
   TERMINAL TOTAL    330.9 +j    189.8      381.5       0.8675
63           1       -84.3 +j    -65.4      106.7       0.7901
63           2      -112.0 +j    -61.0      127.5       0.8783
63           3      -134.4 +j    -63.3      148.5       0.9046
   TERMINAL TOTAL   -330.6 +j   -189.7      381.2       0.8674

ELEMENT = "Line.L63"
63           1        44.3 +j     45.4       63.4       0.6984
63           2       112.0 +j     61.0      127.5       0.8783
63           3       134.4 +j     63.3      148.5       0.9046
   TERMINAL TOTAL    290.6 +j    169.7      336.5       0.8636
64           1       -44.3 +j    -45.4       63.4       0.6980
64           2      -111.7 +j    -60.9      127.3       0.8779
64           3      -134.1 +j    -63.1      148.2       0.9048
   TERMINAL TOTAL   -290.1 +j   -169.5      336.0       0.8634

ELEMENT = "Line.L64"
64           1        44.3 +j     45.4       63.4       0.6980
64           2        35.5 +j     25.4       43.6       0.8135
64           3       134.1 +j     63.1      148.2       0.9048
   TERMINAL TOTAL    213.9 +j    133.9      252.3       0.8476
65           1       -44.3 +j    -45.4       63.4       0.6979
65           2       -35.5 +j    -25.4       43.6       0.8127
65           3      -133.7 +j    -62.9      147.8       0.9048
   TERMINAL TOTAL   -213.4 +j   -133.8      251.9       0.8473

ELEMENT = "Line.L65"
65           1         0.0 +j     -0.0        0.0      -0.0002
65           2        -0.0 +j     -0.0        0.0       0.0002
65           3        75.1 +j     35.0       82.9       0.9063
   TERMINAL TOTAL     75.1 +j     35.0       82.9       0.9065
66           1        -0.0 +j      0.0        0.0      -0.5500
66           2        -0.0 +j     -0.0        0.0       0.9962
66           3       -75.0 +j    -35.0       82.8       0.9062
   TERMINAL TOTAL    -75.0 +j    -35.0       82.8       0.9062

ELEMENT = "Line.L66"
67           1       120.4 +j     60.4      134.7       0.8939
   TERMINAL TOTAL    120.4 +j     60.4      134.7       0.8939
68           1      -120.2 +j    -60.2      134.5       0.8941
   TERMINAL TOTAL   -120.2 +j    -60.2      134.5       0.8941

ELEMENT = "Line.L67"
67           1       263.2 +j   -128.4      292.8      -0.8987
67           2       302.9 +j    -76.1      312.3      -0.9699
67           3       315.5 +j    -90.6      328.3      -0.9612
   TERMINAL TOTAL    881.6 +j   -295.1      929.7      -0.9483
72           1      -263.0 +j    128.9      292.9      -0.8979
72           2      -302.5 +j     76.5      312.1      -0.9695
72           3      -315.3 +j     91.2      328.2      -0.9606
   TERMINAL TOTAL   -880.8 +j    296.7      929.5      -0.9477

ELEMENT = "Line.L68"
67           1       182.9 +j     92.5      204.9       0.8923
67           2       120.2 +j     60.3      134.4       0.8938
67           3       142.6 +j     71.6      159.6       0.8938
   TERMINAL TOTAL    445.7 +j    224.4      499.0       0.8932
97           1      -182.8 +j    -92.3      204.7       0.8927
97           2      -120.1 +j    -60.2      134.4       0.8940
97           3      -142.5 +j    -71.5      159.4       0.8940
   TERMINAL TOTAL   -445.5 +j   -223.9      498.6       0.8935

ELEMENT = "Line.L69"
68           1       100.2 +j     50.2      112.1       0.8940
   TERMINAL TOTAL    100.2 +j     50.2      112.1       0.8940
69           1      -100.1 +j    -50.1      111.9       0.8943
   TERMINAL TOTAL   -100.1 +j    -50.1      111.9       0.8943

ELEMENT = "Line.L70"
69           1        60.1 +j     30.1       67.2       0.8942
   TERMINAL TOTAL     60.1 +j     30.1       67.2       0.8942
70           1       -60.0 +j    -30.0       67.1       0.8944
   TERMINAL TOTAL    -60.0 +j    -30.0       67.1       0.8944

ELEMENT = "Line.L71"
70           1        40.0 +j     20.0       44.8       0.8943
   TERMINAL TOTAL     40.0 +j     20.0       44.8       0.8943
71           1       -40.0 +j    -20.0       44.7       0.8944
   TERMINAL TOTAL    -40.0 +j    -20.0       44.7       0.8944

ELEMENT = "Line.L72"
72           3       122.4 +j     61.4      136.9       0.8939
   TERMINAL TOTAL    122.4 +j     61.4      136.9       0.8939
73           3      -122.1 +j    -61.1      136.6       0.8942
   TERMINAL TOTAL   -122.1 +j    -61.1      136.6       0.8942

ELEMENT = "Line.L73"
72           1       263.0 +j   -128.9      292.9      -0.8979
72           2       302.5 +j    -76.5      312.1      -0.9695
72           3       192.9 +j   -152.6      245.9      -0.7844
   TERMINAL TOTAL    758.5 +j   -358.0      838.7      -0.9043
76           1      -262.9 +j    129.2      292.9      -0.8974
76           2      -302.3 +j     77.0      311.9      -0.9690
76           3      -192.9 +j    152.8      246.1      -0.7838
   TERMINAL TOTAL   -758.0 +j    359.0      838.8      -0.9037

ELEMENT = "Line.L74"
73           3        82.1 +j     41.1       91.9       0.8941
   TERMINAL TOTAL     82.1 +j     41.1       91.9       0.8941
74           3       -82.0 +j    -41.0       91.7       0.8944
   TERMINAL TOTAL    -82.0 +j    -41.0       91.7       0.8944

ELEMENT = "Line.L75"
74           3        40.0 +j     20.0       44.8       0.8943
   TERMINAL TOTAL     40.0 +j     20.0       44.8       0.8943
75           3       -40.0 +j    -20.0       44.7       0.8944
   TERMINAL TOTAL    -40.0 +j    -20.0       44.7       0.8944

ELEMENT = "Line.L76"
76           1        83.0 +j   -171.7      190.7      -0.4353
76           2        80.6 +j   -173.4      191.2      -0.4213
76           3        81.0 +j   -171.8      190.0      -0.4262
   TERMINAL TOTAL    244.5 +j   -517.0      571.9      -0.4276
77           1       -82.9 +j    172.0      190.9      -0.4343
77           2       -80.4 +j    173.7      191.4      -0.4201
77           3       -80.8 +j    172.1      190.1      -0.4249
   TERMINAL TOTAL   -244.1 +j    517.8      572.5      -0.4264

ELEMENT = "Line.L77"
76           1        80.2 +j    -12.7       81.2      -0.9878
76           2       141.5 +j     18.6      142.7       0.9915
76           3        40.0 +j    -33.0       51.8      -0.7715
   TERMINAL TOTAL    261.6 +j    -27.1      263.0      -0.9947
86           1       -80.1 +j     12.7       81.1      -0.9877
86           2      -141.3 +j    -18.1      142.4       0.9918
86           3       -40.0 +j     33.0       51.9      -0.7712
   TERMINAL TOTAL   -261.4 +j     27.6      262.9      -0.9945

ELEMENT = "Line.L78"
77           1        82.9 +j   -172.0      190.9      -0.4343
77           2        40.4 +j   -193.7      197.9      -0.2043
77           3        80.8 +j   -172.1      190.1      -0.4249
   TERMINAL TOTAL    204.1 +j   -537.8      575.2      -0.3548
78           1       -82.9 +j    172.1      191.0      -0.4340
78           2       -40.4 +j    193.8      198.0      -0.2040
78           3       -80.7 +j    172.2      190.1      -0.4247
   TERMINAL TOTAL   -204.0 +j    538.0      575.4      -0.3546

ELEMENT = "Line.L79"
78           1        42.5 +j     21.3       47.5       0.8943
78           2        -0.0 +j     -0.0        0.0       0.0619
78           3        -0.0 +j     -0.0        0.0       0.0738
   TERMINAL TOTAL     42.5 +j     21.3       47.5       0.8944
79           1       -42.5 +j    -21.3       47.5       0.8944
79           2        -0.0 +j     -0.0        0.0       0.5369
79           3        -0.0 +j     -0.0        0.0       0.9999
   TERMINAL TOTAL    -42.5 +j    -21.3       47.5       0.8944

ELEMENT = "Line.L80"
78           1        40.4 +j   -193.3      197.5      -0.2044
78           2        40.4 +j   -193.8      198.0      -0.2040
78           3        80.7 +j   -172.1      190.1      -0.4247
   TERMINAL TOTAL    161.5 +j   -559.3      582.1      -0.2774
80           1       -40.2 +j    193.7      197.9      -0.2034
80           2       -40.3 +j    194.2      198.3      -0.2030
80           3       -80.5 +j    172.4      190.3      -0.4230
   TERMINAL TOTAL   -161.0 +j    560.4      583.0      -0.2761

ELEMENT = "Line.L81"
80           1        40.2 +j   -193.7      197.9      -0.2034
80           2         0.3 +j   -214.2      214.2      -0.0012
80           3        80.5 +j   -172.4      190.3      -0.4230
   TERMINAL TOTAL    121.0 +j   -580.4      592.8      -0.2041
81           1       -40.2 +j    193.9      198.0      -0.2029
81           2        -0.2 +j    214.3      214.3      -0.0010
81           3       -80.4 +j    172.5      190.3      -0.4224
   TERMINAL TOTAL   -120.8 +j    580.8      593.2      -0.2036

ELEMENT = "Line.L82"
81           1        40.2 +j   -193.9      198.0      -0.2029
81           2         0.2 +j   -214.3      214.3      -0.0010
81           3        20.2 +j   -202.7      203.7      -0.0993
   TERMINAL TOTAL     60.6 +j   -610.9      613.9      -0.0987
82           1       -40.1 +j    194.1      198.2      -0.2023
82           2        -0.1 +j    214.6      214.6      -0.0005
82           3       -20.1 +j    202.8      203.8      -0.0988
   TERMINAL TOTAL    -60.3 +j    611.5      614.5      -0.0982

ELEMENT = "Line.L83"
81           3        60.2 +j     30.2       67.3       0.8940
   TERMINAL TOTAL     60.2 +j     30.2       67.3       0.8940
84           3       -60.0 +j    -30.0       67.1       0.8943
   TERMINAL TOTAL    -60.0 +j    -30.0       67.1       0.8943

ELEMENT = "Line.L84"
82           1         0.1 +j   -214.1      214.1      -0.0004
82           2         0.1 +j   -214.6      214.6      -0.0005
82           3        20.1 +j   -202.8      203.8      -0.0988
   TERMINAL TOTAL     20.3 +j   -631.5      631.9      -0.0321
83           1         0.0 +j    214.3      214.3       0.0000
83           2         0.0 +j    214.8      214.8       0.0000
83           3       -20.0 +j    203.0      204.0      -0.0980
   TERMINAL TOTAL    -20.0 +j    632.2      632.5      -0.0316

ELEMENT = "Line.L85"
84           3        40.0 +j     20.0       44.8       0.8943
   TERMINAL TOTAL     40.0 +j     20.0       44.8       0.8943
85           3       -40.0 +j    -20.0       44.7       0.8944
   TERMINAL TOTAL    -40.0 +j    -20.0       44.7       0.8944

ELEMENT = "Line.L86"
86           1        80.1 +j    -12.7       81.1      -0.9877
86           2       121.3 +j      8.1      121.5       0.9977
86           3        40.0 +j    -33.0       51.9      -0.7712
   TERMINAL TOTAL    241.4 +j    -37.6      244.3      -0.9881
87           1       -80.1 +j     12.7       81.1      -0.9876
87           2      -121.2 +j     -8.0      121.4       0.9979
87           3       -40.0 +j     33.1       51.9      -0.7710
   TERMINAL TOTAL   -241.3 +j     37.8      244.2      -0.9879

ELEMENT = "Line.L87"
87           1        40.0 +j    -32.8       51.7      -0.7739
   TERMINAL TOTAL     40.0 +j    -32.8       51.7      -0.7739
88           1       -40.0 +j     32.8       51.7      -0.7736
   TERMINAL TOTAL    -40.0 +j     32.8       51.7      -0.7736

ELEMENT = "Line.L88"
87           1        40.1 +j     20.0       44.8       0.8944
87           2        81.2 +j    -12.0       82.1      -0.9892
87           3        40.0 +j    -33.1       51.9      -0.7710
   TERMINAL TOTAL    161.3 +j    -25.1      163.2      -0.9881
89           1       -40.0 +j    -20.0       44.8       0.8944
89           2       -81.2 +j     12.1       82.1      -0.9891
89           3       -40.0 +j     33.1       51.9      -0.7709
   TERMINAL TOTAL   -161.2 +j     25.1      163.2      -0.9881

ELEMENT = "Line.L89"
89           2        41.1 +j    -32.1       52.2      -0.7879
   TERMINAL TOTAL     41.1 +j    -32.1       52.2      -0.7879
90           2       -41.1 +j     32.2       52.2      -0.7875
   TERMINAL TOTAL    -41.1 +j     32.2       52.2      -0.7875

ELEMENT = "Line.L90"
89           1        40.0 +j     20.0       44.8       0.8944
89           2        40.0 +j     20.0       44.8       0.8941
89           3        40.0 +j    -33.1       51.9      -0.7709
   TERMINAL TOTAL    120.1 +j      7.0      120.3       0.9983
91           1       -40.0 +j    -20.0       44.8       0.8943
91           2       -40.0 +j    -20.0       44.7       0.8942
91           3       -40.0 +j     33.1       51.9      -0.7707
   TERMINAL TOTAL   -120.1 +j     -7.0      120.3       0.9983

ELEMENT = "Line.L91"
91           3        40.0 +j    -33.1       51.9      -0.7708
   TERMINAL TOTAL     40.0 +j    -33.1       51.9      -0.7708
92           3       -40.0 +j     33.1       51.9      -0.7702
   TERMINAL TOTAL    -40.0 +j     33.1       51.9      -0.7702

ELEMENT = "Line.L92"
91           1        40.0 +j     20.0       44.8       0.8943
91           2        40.0 +j     20.0       44.7       0.8942
91           3        -0.0 +j     -0.0        0.0       0.0734
   TERMINAL TOTAL     80.0 +j     40.1       89.5       0.8943
93           1       -40.0 +j    -20.0       44.8       0.8944
93           2       -40.0 +j    -20.0       44.7       0.8943
93           3         0.0 +j      0.0        0.0       0.0733
   TERMINAL TOTAL    -80.0 +j    -40.0       89.5       0.8943

ELEMENT = "Line.L93"
93           1        40.0 +j     20.0       44.8       0.8943
   TERMINAL TOTAL     40.0 +j     20.0       44.8       0.8943
94           1       -40.0 +j    -20.0       44.7       0.8944
   TERMINAL TOTAL    -40.0 +j    -20.0       44.7       0.8944

ELEMENT = "Line.L94"
93           1         0.0 +j     -0.0        0.0      -0.1362
93           2        40.0 +j     20.0       44.7       0.8943
93           3        -0.0 +j     -0.0        0.0       0.0733
   TERMINAL TOTAL     40.0 +j     20.0       44.7       0.8943
95           1         0.0 +j      0.0        0.0       0.8683
95           2       -40.0 +j    -20.0       44.7       0.8944
95           3         0.0 +j     -0.0        0.0      -0.8087
   TERMINAL TOTAL    -40.0 +j    -20.0       44.7       0.8944

ELEMENT = "Line.L95"
95           2        20.0 +j     10.0       22.4       0.8944
   TERMINAL TOTAL     20.0 +j     10.0       22.4       0.8944
96           2       -20.0 +j    -10.0       22.4       0.8944
   TERMINAL TOTAL    -20.0 +j    -10.0       22.4       0.8944

ELEMENT = "Line.L96"
97           1        40.0 +j     20.0       44.7       0.8945
97           2        40.0 +j     20.0       44.8       0.8944
97           3        42.2 +j     21.1       47.2       0.8940
   TERMINAL TOTAL    122.2 +j     61.2      136.7       0.8943
98           1       -40.0 +j    -20.0       44.7       0.8945
98           2       -40.0 +j    -20.0       44.7       0.8945
98           3       -42.2 +j    -21.1       47.2       0.8941
   TERMINAL TOTAL   -122.2 +j    -61.1      136.7       0.8944

ELEMENT = "Line.L97"
98           1         0.0 +j     -0.0        0.0      -0.0593
98           2        40.0 +j     20.0       44.7       0.8945
98           3        42.2 +j     21.1       47.2       0.8941
   TERMINAL TOTAL     82.2 +j     41.1       91.9       0.8943
99           1        -0.0 +j      0.0        0.0      -0.0595
99           2       -40.0 +j    -20.0       44.7       0.8945
99           3       -42.2 +j    -21.1       47.2       0.8944
   TERMINAL TOTAL    -82.2 +j    -41.1       91.9       0.8945

ELEMENT = "Line.L98"
99           1         0.0 +j     -0.0        0.0      -0.0595
99           2        -0.0 +j     -0.0        0.0       0.1381
99           3        42.2 +j     21.1       47.2       0.8944
   TERMINAL TOTAL     42.2 +j     21.1       47.2       0.8945
100          1        -0.0 +j      0.0        0.0      -0.0595
100          2         0.0 +j      0.0        0.0       0.1379
100          3       -42.2 +j    -21.1       47.2       0.8945
   TERMINAL TOTAL    -42.2 +j    -21.1       47.2       0.8946

ELEMENT = "Line.L99"
100          1         0.0 +j     -0.0        0.0      -0.0595
100          2        -0.0 +j     -0.0        0.0       0.1379
100          3         0.0 +j     -0.0        0.0      -0.0786
   TERMINAL TOTAL      0.0 +j     -0.0        0.0      -0.0000
450          1        -0.0 +j      0.0        0.0      -0.1305
450          2         0.0 +j     -0.0        0.0      -0.8461
450          3         0.0 +j      0.0        0.0       0.9998
   TERMINAL TOTAL      0.0 +j      0.0        0.0       0.8039

ELEMENT = "Line.L118"
197          1       142.8 +j     72.3      160.0       0.8922
197          2        80.1 +j     40.2       89.6       0.8938
197          3       100.3 +j     50.3      112.2       0.8939
   TERMINAL TOTAL    323.2 +j    162.8      361.9       0.8931
101          1      -142.7 +j    -72.1      159.9       0.8926
101          2       -80.1 +j    -40.2       89.6       0.8939
101          3      -100.3 +j    -50.3      112.2       0.8940
   TERMINAL TOTAL   -323.1 +j   -162.5      361.7       0.8933

ELEMENT = "Line.L100"
101          3       100.3 +j     50.3      112.2       0.8939
   TERMINAL TOTAL    100.3 +j     50.3      112.2       0.8939
102          3      -100.2 +j    -50.2      112.0       0.8941
   TERMINAL TOTAL   -100.2 +j    -50.2      112.0       0.8941

ELEMENT = "Line.L101"
101          1       142.7 +j     72.1      159.9       0.8926
101          2        80.1 +j     40.2       89.6       0.8939
101          3         0.0 +j     -0.0        0.0      -0.0790
   TERMINAL TOTAL    222.8 +j    112.2      249.5       0.8931
105          1      -142.6 +j    -71.9      159.7       0.8929
105          2       -80.1 +j    -40.1       89.6       0.8942
105          3        -0.0 +j      0.0        0.0      -0.0794
   TERMINAL TOTAL   -222.7 +j   -112.0      249.3       0.8934

ELEMENT = "Line.L102"
102          3        80.2 +j     40.2       89.7       0.8941
   TERMINAL TOTAL     80.2 +j     40.2       89.7       0.8941
103          3       -80.1 +j    -40.1       89.5       0.8943
   TERMINAL TOTAL    -80.1 +j    -40.1       89.5       0.8943

ELEMENT = "Line.L103"
103          3        40.1 +j     20.1       44.8       0.8942
   TERMINAL TOTAL     40.1 +j     20.1       44.8       0.8942
104          3       -40.0 +j    -20.0       44.7       0.8944
   TERMINAL TOTAL    -40.0 +j    -20.0       44.7       0.8944

ELEMENT = "Line.L104"
105          2        80.1 +j     40.1       89.6       0.8942
   TERMINAL TOTAL     80.1 +j     40.1       89.6       0.8942
106          2       -80.0 +j    -40.0       89.5       0.8943
   TERMINAL TOTAL    -80.0 +j    -40.0       89.5       0.8943

ELEMENT = "Line.L105"
105          1       142.6 +j     71.9      159.7       0.8929
105          2        -0.0 +j     -0.0        0.0       0.1385
105          3         0.0 +j     -0.0        0.0      -0.0794
   TERMINAL TOTAL    142.6 +j     71.9      159.7       0.8930
108          1      -142.5 +j    -71.6      159.5       0.8934
108          2         0.0 +j      0.0        0.0       0.1387
108          3        -0.0 +j      0.0        0.0      -0.0801
   TERMINAL TOTAL   -142.5 +j    -71.6      159.4       0.8935

ELEMENT = "Line.L106"
106          2        40.0 +j     20.0       44.8       0.8942
   TERMINAL TOTAL     40.0 +j     20.0       44.8       0.8942
107          2       -40.0 +j    -20.0       44.7       0.8944
   TERMINAL TOTAL    -40.0 +j    -20.0       44.7       0.8944

ELEMENT = "Line.L107"
108          1       142.5 +j     71.6      159.5       0.8934
   TERMINAL TOTAL    142.5 +j     71.6      159.5       0.8934
109          1      -142.0 +j    -71.2      158.8       0.8940
   TERMINAL TOTAL   -142.0 +j    -71.2      158.8       0.8940

ELEMENT = "Line.L108"
108          1         0.0 +j     -0.0        0.0      -0.0590
108          2        -0.0 +j     -0.0        0.0       0.1387
108          3         0.0 +j     -0.0        0.0      -0.0801
   TERMINAL TOTAL      0.0 +j     -0.0        0.0      -0.0000
300          1        -0.0 +j      0.0        0.0      -0.2856
300          2        -0.0 +j     -0.0        0.0       0.7740
300          3         0.0 +j     -0.0        0.0      -0.0196
   TERMINAL TOTAL     -0.0 +j     -0.0        0.0       0.8079

ELEMENT = "Line.L109"
109          1       102.0 +j     51.2      114.1       0.8939
   TERMINAL TOTAL    102.0 +j     51.2      114.1       0.8939
110          1      -101.8 +j    -51.0      113.9       0.8942
   TERMINAL TOTAL   -101.8 +j    -51.0      113.9       0.8942

ELEMENT = "Line.L110"
110          1        20.0 +j     10.0       22.4       0.8944
   TERMINAL TOTAL     20.0 +j     10.0       22.4       0.8944
111          1       -20.0 +j    -10.0       22.4       0.8944
   TERMINAL TOTAL    -20.0 +j    -10.0       22.4       0.8944

ELEMENT = "Line.L111"
110          1        81.8 +j     41.0       91.5       0.8941
   TERMINAL TOTAL     81.8 +j     41.0       91.5       0.8941
112          1       -81.8 +j    -40.9       91.4       0.8942
   TERMINAL TOTAL    -81.8 +j    -40.9       91.4       0.8942

ELEMENT = "Line.L112"
112          1        61.4 +j     30.8       68.7       0.8941
   TERMINAL TOTAL     61.4 +j     30.8       68.7       0.8941
113          1       -61.3 +j    -30.6       68.5       0.8944
   TERMINAL TOTAL    -61.3 +j    -30.6       68.5       0.8944

ELEMENT = "Line.L113"
113          1        20.0 +j     10.0       22.4       0.8944
   TERMINAL TOTAL     20.0 +j     10.0       22.4       0.8944
114          1       -20.0 +j    -10.0       22.4       0.8944
   TERMINAL TOTAL    -20.0 +j    -10.0       22.4       0.8944

ELEMENT = "Line.L114"
135          1       283.0 +j    157.5      323.9       0.8737
135          2       275.9 +j    192.6      336.5       0.8200
135          3       200.6 +j    126.5      237.2       0.8459
   TERMINAL TOTAL    759.6 +j    476.7      896.7       0.8470
35           1      -282.4 +j   -156.7      323.0       0.8745
35           2      -275.5 +j   -191.7      335.7       0.8208
35           3      -200.6 +j   -126.2      236.9       0.8465
   TERMINAL TOTAL   -758.5 +j   -474.6      894.8       0.8478

ELEMENT = "Line.L116"
152          1       782.3 +j    175.2      801.7       0.9758
152          2       600.7 +j     87.7      607.1       0.9895
152          3       641.6 +j     79.1      646.4       0.9925
   TERMINAL TOTAL   2024.6 +j    342.1     2053.3       0.9860
52           1      -778.7 +j   -169.0      796.9       0.9772
52           2      -600.4 +j    -85.1      606.4       0.9901
52           3      -639.8 +j    -76.1      644.3       0.9930
   TERMINAL TOTAL  -2019.0 +j   -330.2     2045.8       0.9869

ELEMENT = "Line.L117"
160R         1       567.4 +j     27.0      568.0       0.9989
160R         2       423.5 +j    -14.5      423.8      -0.9994
160R         3       459.1 +j    -18.0      459.5      -0.9992
   TERMINAL TOTAL   1450.1 +j     -5.5     1450.1      -1.0000
67           1      -566.4 +j    -24.4      567.0       0.9991
67           2      -423.1 +j     15.8      423.4      -0.9993
67           3      -458.1 +j     19.0      458.5      -0.9991
   TERMINAL TOTAL  -1447.7 +j     10.4     1447.7      -1.0000

ELEMENT = "Line.SW1"
150R         1      1459.5 +j    582.7     1571.5       0.9287
150R         2       960.5 +j    341.9     1019.6       0.9421
150R         3      1188.3 +j    399.3     1253.6       0.9479
   TERMINAL TOTAL   3608.4 +j   1323.8     3843.5       0.9388
149          1     -1459.5 +j   -582.7     1571.5       0.9287
149          2      -960.5 +j   -341.9     1019.6       0.9421
149          3     -1188.3 +j   -399.3     1253.6       0.9479
   TERMINAL TOTAL  -3608.4 +j  -1323.8     3843.5       0.9388

ELEMENT = "Line.SW2"
13           1       782.3 +j    175.2      801.7       0.9758
13           2       600.7 +j     87.7      607.1       0.9895
13           3       641.6 +j     79.1      646.4       0.9925
   TERMINAL TOTAL   2024.6 +j    342.1     2053.3       0.9860
152          1      -782.3 +j   -175.2      801.7       0.9758
152          2      -600.7 +j    -87.7      607.1       0.9895
152          3      -641.6 +j    -79.1      646.4       0.9925
   TERMINAL TOTAL  -2024.6 +j   -342.1     2053.3       0.9860

ELEMENT = "Line.SW3"
18           1       283.0 +j    157.5      323.9       0.8737
18           2       275.9 +j    192.6      336.5       0.8200
18           3       200.6 +j    126.5      237.2       0.8459
   TERMINAL TOTAL    759.6 +j    476.7      896.7       0.8470
135          1      -283.0 +j   -157.5      323.9       0.8737
135          2      -275.9 +j   -192.6      336.5       0.8200
135          3      -200.6 +j   -126.5      237.2       0.8459
   TERMINAL TOTAL   -759.6 +j   -476.7      896.7       0.8470

ELEMENT = "Line.SW4"
60           1       567.4 +j     27.0      568.0       0.9989
60           2       423.5 +j    -14.5      423.8      -0.9994
60           3       459.1 +j    -18.0      459.5      -0.9992
   TERMINAL TOTAL   1450.1 +j     -5.5     1450.1      -1.0000
160          1      -567.4 +j    -27.0      568.0       0.9989
160          2      -423.5 +j     14.5      423.8      -0.9994
160          3      -459.1 +j     18.0      459.5      -0.9992
   TERMINAL TOTAL  -1450.1 +j      5.5     1450.1      -1.0000

ELEMENT = "Line.SW5"
97           1       142.8 +j     72.3      160.0       0.8922
97           2        80.1 +j     40.2       89.6       0.8938
97           3       100.3 +j     50.3      112.2       0.8939
   TERMINAL TOTAL    323.2 +j    162.8      361.9       0.8931
197          1      -142.8 +j    -72.3      160.0       0.8922
197          2       -80.1 +j    -40.2       89.6       0.8938
197          3      -100.3 +j    -50.3      112.2       0.8939
   TERMINAL TOTAL   -323.2 +j   -162.8      361.9       0.8931

ELEMENT = "Line.SW6"
61           1         0.0 +j      0.0        0.0       0.0264
61           2        -0.0 +j      0.0        0.0      -0.0018
61           3         0.0 +j      0.0        0.0       0.0012
   TERMINAL TOTAL      0.0 +j      0.0        0.0       0.0082
61S          1        -0.0 +j     -0.0        0.0       0.0264
61S          2         0.0 +j     -0.0        0.0      -0.0018
61S          3        -0.0 +j     -0.0        0.0       0.0012
   TERMINAL TOTAL     -0.0 +j     -0.0        0.0       0.0082

ELEMENT = "Line.SW7"
151          1         0.0 +j      0.0        0.0       1.0000
151          2         0.0 +j      0.0        0.0       1.0000
151          3         0.0 +j      0.0        0.0       1.0000
   TERMINAL TOTAL      0.0 +j      0.0        0.0       1.0000
300_OPEN     1         0.0 +j      0.0        0.0       1.0000
300_OPEN     2         0.0 +j      0.0        0.0       1.0000
300_OPEN     3         0.0 +j      0.0        0.0       1.0000
   TERMINAL TOTAL      0.0 +j      0.0        0.0       1.0000

ELEMENT = "Line.SW8"
54           1         0.0 +j      0.0        0.0       1.0000
   TERMINAL TOTAL      0.0 +j      0.0        0.0       1.0000
94_OPEN      1         0.0 +j      0.0        0.0       1.0000
   TERMINAL TOTAL      0.0 +j      0.0        0.0       1.0000

ELEMENT = "Transformer.XFM1"
61S          1         0.0 +j      0.0        0.0       0.0072
61S          2         0.0 +j      0.0        0.0       0.0001
61S          3        -0.0 +j      0.0        0.0      -0.0070
61S          0         0.0 +j      0.0        0.0       1.0000
   TERMINAL TOTAL      0.0 +j      0.0        0.0       0.0000
610          1        -0.0 +j     -0.0        0.0       0.9144
610          2         0.0 +j     -0.0        0.0      -0.9842
610          3         0.0 +j      0.0        0.0       0.4407
610          0         0.0 +j      0.0        0.0       1.0000
   TERMINAL TOTAL      0.0 +j      0.0        0.0       0.7325

ELEMENT = "Capacitor.C83"
83           1         0.0 +j   -214.3      214.3       1.0000
83           2        -0.0 +j   -214.8      214.8       0.0000
83           3         0.0 +j   -213.0      213.0      -0.0000
   TERMINAL TOTAL      0.0 +j   -642.2      642.2       1.0000
83           0         0.0 +j      0.0        0.0       1.0000
83           0         0.0 +j      0.0        0.0       1.0000
83           0         0.0 +j      0.0        0.0       1.0000
   TERMINAL TOTAL      0.0 +j      0.0        0.0       1.0000

ELEMENT = "Capacitor.C88A"
88           1         0.0 +j    -52.8       52.8       1.0000
   TERMINAL TOTAL      0.0 +j    -52.8       52.8       1.0000
88           0         0.0 +j      0.0        0.0       1.0000
   TERMINAL TOTAL      0.0 +j      0.0        0.0       1.0000

ELEMENT = "Capacitor.C90B"
90           2         0.0 +j    -52.7       52.7      -0.0000
   TERMINAL TOTAL      0.0 +j    -52.7       52.7      -0.0000
90           0         0.0 +j      0.0        0.0       1.0000
   TERMINAL TOTAL      0.0 +j      0.0        0.0       1.0000

ELEMENT = "Capacitor.C92C"
92           3         0.0 +j    -53.1       53.1       1.0000
   TERMINAL TOTAL      0.0 +j    -53.1       53.1       1.0000
92           0         0.0 +j      0.0        0.0       1.0000
   TERMINAL TOTAL      0.0 +j      0.0        0.0       1.0000

ELEMENT = "Transformer.REG2A"
9            1        60.8 +j     30.4       68.0       0.8941
9            0         0.0 +j      0.0        0.0       1.0000
   TERMINAL TOTAL     60.8 +j     30.4       68.0       0.8941
9R           1       -60.8 +j    -30.4       68.0       0.8941
9R           0         0.0 +j      0.0        0.0       1.0000
   TERMINAL TOTAL    -60.8 +j    -30.4       68.0       0.8941

ELEMENT = "Transformer.REG3A"
25           1        40.1 +j     20.1       44.9       0.8939
25           0         0.0 +j      0.0        0.0       1.0000
   TERMINAL TOTAL     40.1 +j     20.1       44.9       0.8939
25R          1       -40.1 +j    -20.1       44.9       0.8939
25R          0         0.0 +j      0.0        0.0       1.0000
   TERMINAL TOTAL    -40.1 +j    -20.1       44.9       0.8939

ELEMENT = "Transformer.REG4A"
160          1       567.4 +j     27.0      568.0       0.9989
160          0         0.0 +j      0.0        0.0       1.0000
   TERMINAL TOTAL    567.4 +j     27.0      568.0       0.9989
160R         1      -567.4 +j    -27.0      568.0       0.9989
160R         0         0.0 +j      0.0        0.0       1.0000
   TERMINAL TOTAL   -567.4 +j    -27.0      568.0       0.9989

ELEMENT = "Transformer.REG3C"
25           3        40.0 +j     20.0       44.8       0.8943
25           0         0.0 +j      0.0        0.0       1.0000
   TERMINAL TOTAL     40.0 +j     20.0       44.8       0.8943
25R          3       -40.0 +j    -20.0       44.8       0.8943
25R          0         0.0 +j      0.0        0.0       1.0000
   TERMINAL TOTAL    -40.0 +j    -20.0       44.8       0.8943

ELEMENT = "Transformer.REG4B"
160          2       423.5 +j    -14.5      423.8      -0.9994
160          0         0.0 +j      0.0        0.0       1.0000
   TERMINAL TOTAL    423.5 +j    -14.5      423.8      -0.9994
160R         2      -423.5 +j     14.5      423.8      -0.9994
160R         0         0.0 +j      0.0        0.0       1.0000
   TERMINAL TOTAL   -423.5 +j     14.5      423.8      -0.9994

ELEMENT = "Transformer.REG4C"
160          3       459.1 +j    -18.0      459.5      -0.9992
160          0         0.0 +j      0.0        0.0       1.0000
   TERMINAL TOTAL    459.1 +j    -18.0      459.5      -0.9992
160R         3      -459.1 +j     18.0      459.5      -0.9992
160R         0         0.0 +j      0.0        0.0       1.0000
   TERMINAL TOTAL   -459.1 +j     18.0      459.5      -0.9992

= = = = = = = = = = = = = = = = = = =  = = = = = = = = = = =  = =

Power Conversion Elements

  Bus    Phase     kW   +j  kvar         kVA         PF

ELEMENT = "Load.S1A"
1            1      40.0 +j   20.0       44.7       0.8944
1            0       0.0 +j    0.0        0.0       1.0000
  TERMINAL TOTAL      40.0 +j     20.0       44.7       0.8944

ELEMENT = "Load.S2B"
2            2      20.0 +j   10.0       22.4       0.8944
2            0       0.0 +j    0.0        0.0       1.0000
  TERMINAL TOTAL      20.0 +j     10.0       22.4       0.8944

ELEMENT = "Load.S4C"
4            3      40.0 +j   20.0       44.7       0.8944
4            0       0.0 +j    0.0        0.0       1.0000
  TERMINAL TOTAL      40.0 +j     20.0       44.7       0.8944

ELEMENT = "Load.S5C"
5            3      20.5 +j   10.3       23.0       0.8944
5            0       0.0 +j    0.0        0.0       1.0000
  TERMINAL TOTAL      20.5 +j     10.3       23.0       0.8944

ELEMENT = "Load.S6C"
6            3      42.1 +j   21.0       47.1       0.8944
6            0       0.0 +j    0.0        0.0       1.0000
  TERMINAL TOTAL      42.1 +j     21.0       47.1       0.8944

ELEMENT = "Load.S7A"
7            1      20.0 +j   10.0       22.4       0.8944
7            0       0.0 +j    0.0        0.0       1.0000
  TERMINAL TOTAL      20.0 +j     10.0       22.4       0.8944

ELEMENT = "Load.S9A"
9            1      40.0 +j   20.0       44.7       0.8944
9            0       0.0 +j    0.0        0.0       1.0000
  TERMINAL TOTAL      40.0 +j     20.0       44.7       0.8944

ELEMENT = "Load.S10A"
10           1      20.1 +j   10.1       22.5       0.8944
10           0       0.0 +j    0.0        0.0       1.0000
  TERMINAL TOTAL      20.1 +j     10.1       22.5       0.8944

ELEMENT = "Load.S11A"
11           1      40.5 +j   20.3       45.3       0.8944
11           0       0.0 +j    0.0        0.0       1.0000
  TERMINAL TOTAL      40.5 +j     20.3       45.3       0.8944

ELEMENT = "Load.S12B"
12           2      20.0 +j   10.0       22.4       0.8944
12           0       0.0 +j    0.0        0.0       1.0000
  TERMINAL TOTAL      20.0 +j     10.0       22.4       0.8944

ELEMENT = "Load.S16C"
16           3      40.0 +j   20.0       44.7       0.8944
16           0       0.0 +j    0.0        0.0       1.0000
...